[TITLE]
Scenario: Base 
Date: 12-10-2022 10:36:57 

[JUNCTIONS]
J-2 40 0 
J-5 40 0 
J-6 40 0 
J-11 40 0 
J-14 40 0 
J-23 40 0 
J-25 40 0 
J-28 40 0 
J-29 40 0 
J-31 40 0 
J-35 40 0 
J-39 40 0 
J-40 40 0 
J-45 40 0 
J-46 40 0 
J-47 40 0 
J-48 40 0 
J-50 40 0 
J-51 40 0 
J-52 40 0 
J-53 40 0 
J-54 40 0 
J-55 40 0 
J-56 40 0 
J-57 40 0 
J-58 40 0 
J-59 40 0 
J-60 40 0 
J-61 40 0 
J-62 40 0 
J-63 40 0 
J-64 40 0 
J-65 40 0 
J-66 40 0 
J-67 40 0 
J-68 40 0 
J-69 40 0 
J-71 40 0 
J-72 40 0 
J-73 40 0 
J-74 40 0 
J-75 40 0 
J-76 40 0 
J-77 40 0 
J-78 40 0 
J-79 40 0 
J-80 40 0 
J-81 40 0 
J-82 40 0 
J-83 40 0 
J-84 40 0 
J-85 40 0 
J-86 40 0 
J-87 40 0 
J-88 40 0 
J-89 40 0 
J-90 40 0 
J-92 40 0 
J-94 40 0 
J-95 40 0 
J-96 40 0 
J-97 40 0 
J-98 40 0 
J-99 40 0 
J-100 40 0 
J-101 40 0 

[RESERVOIRS]
stp2 90 
STP1 90 

[DEMANDS]
J-2 0.057 
J-5 0.057 
J-6 0.057 
J-11 0.057 
J-14 0.057 
J-23 0.057 
J-25 0.057 
J-28 0.057 
J-29 0.057 
J-31 0.057 
J-35 0.057 
J-39 0.057 
J-40 0.057 
J-45 0.057 
J-46 0.057 
J-47 0.057 
J-48 0.057 
J-50 0.057 
J-51 0.057 
J-52 0.057 
J-53 0.057 
J-54 0.057 
J-55 0.057 
J-56 0.057 
J-57 0.057 
J-58 0.057 
J-59 0.057 
J-60 0.057 
J-61 0.057 
J-62 0.057 
J-63 0.057 
J-64 0.057 
J-65 0.057 
J-66 0.057 
J-67 0.057 
J-68 0.057 
J-69 0.057 
J-71 0.057 
J-72 0.057 
J-73 0.057 
J-74 0.057 
J-75 0.057 
J-76 0.057 
J-77 0.057 
J-78 0.057 
J-79 0.057 
J-80 0.057 
J-81 0.057 
J-82 0.057 
J-83 0.057 
J-84 0.057 
J-85 0.057 
J-86 0.057 
J-87 0.057 
J-88 0.057 
J-89 0.057 
J-90 0.057 
J-92 0.057 
J-94 0.057 
J-95 0.057 
J-96 0.057 
J-97 0.057 
J-98 0.057 
J-99 0.057 
J-100 0.057 
J-101 0.057 

[EMITTERS]

[PIPES]
Pipes-51 J-5 J-6 16.687851441898 63 130 0 
Pipes-13 J-39 J-40 18.1199620352243 110 130 0 
Pipes-49 J-5 J-6 16.687851441898 63 130 0 
Pipes-26 J-45 J-46 5.59884548359828 160 130 0 
Pipes-28 J-51 J-52 46.8874753817543 160 130 0 
Pipes-46 J-53 J-54 64.0374050816055 160 130 0 
Pipes-17 J-55 J-56 48.4453252651141 160 130 0 
Pipes-52 J-57 J-58 62.2527298060456 63 130 0 
Pipes-22 J-59 J-60 72.5161620054242 160 130 0 
Pipes-45 J-61 J-53 99.3609353292829 160 130 0 
Pipes-15 J-23 J-31 80.7698600784704 160 130 0 
Pipes-25 J-62 J-45 139.449178030647 160 130 0 
Pipes-43 J-63 J-64 99.7998700776806 160 130 0 
Pipes-21 J-29 J-59 116.139299714227 160 130 0 
Pipes-11 J-65 J-66 118.24128695361 110 130 0 
Pipes-37 J-68 J-47 134.964643763832 160 130 0 
Pipes-32 J-69 J-85 142.563108055351 160 130 0 
Pipes-18 J-56 J-71 150.357058094302 160 130 0 
Pipes-48 J-72 J-5 192.713886772818 63 130 0 
Pipes-40 J-73 J-74 245.102852781123 160 130 0 
Pipes-31 J-78 J-69 311.431344612295 160 130 0 
Pipes-47 J-80 J-81 501.547253927147 160 130 0 
Pipes-44 J-82 J-83 446.425373092098 160 130 0 
P-1 J-79 J-6 537.348744725969 152.40000000061 130 0 
P-2 J-31 J-87 6.55374040982166 160 130 0 
P-3 J-55 J-65 4.46350799522467 160 130 0 
Pipes-42(2) J-89 J-87 179.053855657729 160 130 0 
P-4 J-89 J-83 55.8315208192347 110 130 0 
P-5 J-82 J-74 5.59285931028605 160 130 0 
P-6 J-82 J-90 73.3345172490353 110 130 0 
P-7 J-86 J-74 277.905808423253 160 130 0 
P-8 J-66 J-14 6.75795171549856 110 130 0 
P-10 J-94 J-14 6.91617661091137 63 130 0 
P-12 J-94 J-92 6.33706551932044 40 130 0 
Pipes-19(1) J-67 J-95 4.78226481950669 160 130 0 
Pipes-19(2) J-95 J-29 131.484374710509 160 130 0 
P-13 J-71 J-95 3.57752452639634 160 130 0 
P-14 J-6 J-96 97.7991121091934 63 130 0 
P-15 J-62 J-72 4.57469364008973 160 130 0 
P-16 J-57 J-46 3.61219967892025 160 130 0 
Pipes-29(1) J-52 J-97 215.774905215911 160 130 0 
Pipes-29(2) J-97 J-77 6.22769163039076 160 130 0 
P-17 J-78 J-97 347.193578401498 160 130 0 
P-18 J-50 J-88 2.34883041048761 160 130 0 
P-19 J-88 J-98 26.3263594993742 63 130 0 
P-20 J-35 J-81 298.600934096071 160 130 0 
Pipes-39(1) J-75 J-28 121.574859695167 160 130 0 
Pipes-39(2) J-28 J-76 146.38785360171 160 130 0 
P-21 J-28 J-2 14.0705413203557 40 130 0 
P-22 J-68 J-99 11.6087138408008 110 130 0 
P-23 J-11 J-100 16.1410452015602 90 130 0 
Pipes-34(1) J-85 J-101 15.7306278320739 160 130 0 
Pipes-34(2) J-101 J-50 24.6389007906822 160 130 0 
P-24 stp2 J-101 128.351396512996 160 130 0 
Pipes-12(1) J-65 STP1 4.92871013840382 160 130 0 
P-25 J-68 J-81 5.11778072443192 160 130 0 
Pipes-35(1) J-88 J-61 638.821761888296 160 130 0 
Pipes-35(2) J-61 J-35 100.806856052065 160 130 0 
Pipes-23(1) J-60 J-25 153.060174602293 160 130 0 
Pipes-23(2) J-25 J-79 122.485682036533 160 130 0 
Pipes-33(1) J-84 J-11 540.605756012932 160 130 0 
Pipes-33(2) J-11 J-85 93.2806294358786 160 130 0 
Pipes-42(1)(1) J-86 J-63 38.1434602885034 160 130 0 
Pipes-42(1)(2) J-63 J-89 821.309375152515 160 130 0 
Pipes-12(2)(1) STP1 J-40 129.885961235963 160 130 0 
Pipes-12(2)(2) J-40 J-23 138.405064845878 160 130 0 
Pipes-38(1) J-47 J-75 16.1641078090739 160 130 0 
Pipes-38(2) J-75 J-48 9.52976376605858 160 130 0 

[COORDINATES]
J-2 1050.33347084773 282.259462907948  
J-5 1072.29399582885 1749.56262107862  
J-6 1073.60835018543 1766.19863196982  
J-11 1300.38051921533 1062.49176657983  
J-14 520.249310994975 1302.20505162326  
J-23 499.996820185736 1014.09376599673  
J-25 416.027035331031 1779.20060032  
J-28 1064.39300664482 281.703058182939  
J-29 244.506841577566 1563.3519622049  
J-31 533.728345577566 940.712847158366  
J-35 1550.9480794934 410.681199961705  
J-39 466.830345913242 1147.08837719461  
J-40 449.238006135202 1142.74757020835  
J-45 1000.7748571392 1509.42892672  
J-46 1003.8059995392 1513.47044992  
J-47 1128.5880283392 293.94082432  
J-48 1121.6416603392 293.68822912  
J-50 1272.74280721599 932.675575897935  
J-51 1008.7316059392 1493.89432192  
J-52 982.7143003392 1462.82511232  
J-53 1438.0171483392 497.40625792  
J-54 1409.9790811392 463.05331072  
J-55 398.0827099392 1272.24203392  
J-56 372.6968923392 1313.28875392  
J-57 1001.6589403392 1516.37529472  
J-58 971.4738139392 1566.89433472  
J-59 267.3646939392 1672.60542592  
J-60 267.2383963392 1745.10024832  
J-61 1518.27147515128 492.022758978614  
J-62 1019.2143067392 1599.85800832  
J-63 540.06239770041 371.192584797579  
J-64 526.0221787392 468.98929792  
J-65 399.9771739392 1268.20051072  
J-66 513.7713115392 1300.28010112  
J-67 283.332906512262 1438.22804089543  
J-68 1259.9375323392 323.74705792  
J-69 1134.7766107392 956.11914112  
J-71 288.2037979392 1437.05463697776  
J-72 1023.7610203392 1599.35281792  
J-73 929.1641179392 253.52559232  
J-74 850.6070107392 393.21073792  
J-75 1121.64568681593 302.905940681634  
J-76 927.1433563392 247.96849792  
J-77 821.9374555392 1323.01366912  
J-78 872.9616859392 979.86308992  
J-79 537.1363675392 1796.88226432  
J-80 1390.2766555392 653.63638912  
J-81 1264.8631387392 325.13633152  
J-82 848.2073563392 398.26264192  
J-83 702.4599259392 795.34229632  
J-84 965.4115291392 1448.04829312  
J-85 1276.34383610903 972.420606106207  
J-86 575.0256475392 357.34221952  
J-87 536.7574747392 934.90114432  
J-88 1274.11670658575 930.770476210518  
J-89 646.630065455024 795.772871872098  
J-90 775.351665606442 389.896056714447  
J-92 533.064049027141 1305.57873139631  
J-94 526.964942371367 1303.85847054469  
J-95 287.072118564892 1440.44845246048  
J-96 1107.5076869675 1836.70822679562  
J-97 827.781563401532 1324.10448401827  
J-98 1247.80939646036 929.769157851282  
J-99 1263.26853568033 312.626506954378  
J-100 1316.51464687733 1062.9642756116  
J-101 1275.15230272085 956.952399842789  
stp2 1399.23894529443 989.763771677162  
STP1 401.466281480198 1263.50213415359  

[VERTICES]
Pipes-26 1001.0274523392 1509.93411712
Pipes-26 1001.5326427392 1511.44968832
Pipes-26 1002.0378331392 1512.96525952
Pipes-28 1013.0257243392 1487.07425152
Pipes-28 1008.1001179392 1483.03272832
Pipes-28 1006.7108443392 1482.02234752
Pipes-28 1005.4478683392 1480.88566912
Pipes-28 1001.9115355392 1478.10712192
Pipes-28 998.7540955392 1475.45487232
Pipes-28 996.1018459392 1473.43411072
Pipes-28 993.8284891392 1471.66594432
Pipes-28 990.6710491392 1469.13999232
Pipes-28 988.1450971392 1466.99293312
Pipes-46 1442.21288626779 466.017882149649
Pipes-17 395.0515675392 1275.52577152
Pipes-17 392.1467227392 1279.18840192
Pipes-17 389.9996635392 1282.21954432
Pipes-17 387.3474139392 1286.38736512
Pipes-17 384.8214619392 1290.42888832
Pipes-17 382.0429147392 1295.48079232
Pipes-17 379.2643675392 1300.40639872
Pipes-17 376.1069275392 1306.72127872
Pipes-52 1003.5534043392 1517.13308032
Pipes-52 1002.9219163392 1518.14346112
Pipes-52 1002.4167259392 1518.77494912
Pipes-52 1001.9115355392 1519.53273472
Pipes-52 1001.0274523392 1520.92200832
Pipes-52 1000.1433691392 1522.18498432
Pipes-52 999.3855835392 1523.19536512
Pipes-52 998.3752027392 1524.96353152
Pipes-52 997.6174171392 1525.97391232
Pipes-52 995.8492507392 1528.49986432
Pipes-52 994.3336795392 1530.89951872
Pipes-52 993.0707035392 1532.54138752
Pipes-52 991.0499419392 1535.57252992
Pipes-52 989.7869659392 1537.34069632
Pipes-52 988.7765851392 1538.85626752
Pipes-52 987.5136091392 1540.62443392
Pipes-52 985.2402523392 1544.03446912
Pipes-52 984.4824667392 1545.17114752
Pipes-52 983.4720859392 1546.68671872
Pipes-52 982.3354075392 1548.20228992
Pipes-52 981.1987291392 1549.97045632
Pipes-52 980.4409435392 1550.98083712
Pipes-52 979.4305627392 1552.62270592
Pipes-52 978.6727771392 1553.75938432
Pipes-52 977.9149915392 1554.76976512
Pipes-52 976.6520155392 1556.53793152
Pipes-52 976.0205275392 1557.54831232
Pipes-52 975.1364443392 1558.81128832
Pipes-52 973.9997659392 1560.45315712
Pipes-52 972.8630875392 1562.09502592
Pipes-52 971.8527067392 1563.61059712
Pipes-52 970.5897307392 1565.50506112
Pipes-22 267.2383963392 1677.65732992
Pipes-22 267.1120987392 1682.70923392
Pipes-22 267.2383963392 1686.49816192
Pipes-22 267.3646939392 1691.04487552
Pipes-22 267.3646939392 1695.84418432
Pipes-22 267.3646939392 1700.39089792
Pipes-22 267.3646939392 1705.69539712
Pipes-22 267.3646939392 1709.73692032
Pipes-22 267.6172891392 1714.78882432
Pipes-22 267.6172891392 1722.11408512
Pipes-22 267.6172891392 1731.46010752
Pipes-22 267.3646939392 1737.26979712
Pipes-22 267.3646939392 1741.94280832
Pipes-45 1492.8303067392 485.15539072
Pipes-45 1483.2316891392 509.53082752
Pipes-15 506.6986459392 1000.32330112
Pipes-15 512.6346331392 986.93575552
Pipes-15 518.8232155392 973.04301952
Pipes-15 530.5688923392 947.27830912
Pipes-25 1020.3509851392 1594.67980672
Pipes-25 1020.8561755392 1592.02755712
Pipes-25 1021.6139611392 1589.12271232
Pipes-25 1021.1087707392 1566.76803712
Pipes-25 1021.1087707392 1559.44277632
Pipes-25 1021.1087707392 1555.90644352
Pipes-25 1021.1087707392 1551.61232512
Pipes-25 1020.6035803392 1547.57080192
Pipes-25 1019.2143067392 1544.91855232
Pipes-25 1016.8146523392 1542.64519552
Pipes-25 1011.5101531392 1538.60367232
Pipes-25 1006.2056539392 1533.17287552
Pipes-25 1004.6900827392 1527.11059072
Pipes-25 1005.3215707392 1523.44796032
Pipes-25 1006.8371419392 1520.16422272
Pipes-25 1006.9634395392 1519.65903232
Pipes-25 1010.6260699392 1516.24899712
Pipes-25 1012.3942363392 1513.97564032
Pipes-25 1013.5309147392 1511.07079552
Pipes-25 1017.3198427392 1505.38740352
Pipes-25 1019.0880091392 1502.73515392
Pipes-25 1015.8042715392 1499.95660672
Pipes-25 1013.4046171392 1497.93584512
Pipes-25 1008.7316059392 1493.89432192
Pipes-25 1007.0897371392 1498.31473792
Pipes-25 1006.5845467392 1499.95660672
Pipes-25 1004.6900827392 1502.73515392
Pipes-25 1003.6797019392 1504.25072512
Pipes-43 535.3682011392 379.06540672
Pipes-43 535.8733915392 400.40970112
Pipes-21 243.8733403392 1569.92547712
Pipes-21 243.3681499392 1577.50333312
Pipes-21 243.1155547392 1584.95489152
Pipes-21 242.8629595392 1593.79572352
Pipes-21 242.9892571392 1600.99468672
Pipes-21 243.6207451392 1608.69884032
Pipes-21 244.8837211392 1615.01372032
Pipes-21 246.6518875392 1619.43413632
Pipes-21 249.1778395392 1623.47565952
Pipes-21 253.0930651392 1628.27496832
Pipes-21 257.3871835392 1633.20057472
Pipes-21 261.3024091392 1638.12618112
Pipes-21 264.0809563392 1642.16770432
Pipes-21 265.5965275392 1648.10369152
Pipes-21 266.8595035392 1653.91338112
Pipes-21 267.3646939392 1656.81822592
Pipes-21 267.6172891392 1661.36493952
Pipes-21 267.6172891392 1664.77497472
Pipes-11 404.0186971392 1269.33718912
Pipes-11 408.4391131392 1270.60016512
Pipes-11 411.7228507392 1271.48424832
Pipes-11 414.5013979392 1272.36833152
Pipes-11 416.7747547392 1272.87352192
Pipes-11 419.6795995392 1273.75760512
Pipes-11 423.8474203392 1274.89428352
Pipes-11 426.2470747392 1275.65206912
Pipes-11 428.2678363392 1276.15725952
Pipes-11 432.4356571392 1277.29393792
Pipes-11 434.0775259392 1277.79912832
Pipes-11 440.7712987392 1279.69359232
Pipes-11 448.4754523392 1281.84065152
Pipes-11 455.9270107392 1283.98771072
Pipes-11 459.4633435392 1284.99809152
Pipes-11 463.2522715392 1286.00847232
Pipes-11 472.5982939392 1288.66072192
Pipes-11 477.7764955392 1290.17629312
Pipes-11 481.1865307392 1291.06037632
Pipes-11 484.9754587392 1292.07075712
Pipes-11 489.2695771392 1293.33373312
Pipes-11 499.7522779392 1296.23857792
Pipes-11 505.4356699392 1297.88044672
Pipes-37 1175.5707355392 300.38200192
Pipes-32 1140.0811099392 956.87692672
Pipes-32 1145.8907995392 957.76100992
Pipes-32 1151.1952987392 958.51879552
Pipes-32 1154.6053339392 959.02398592
Pipes-32 1157.8890715392 959.52917632
Pipes-32 1163.0672731392 960.03436672
Pipes-32 1166.4773083392 960.41325952
Pipes-32 1173.0447835392 961.04474752
Pipes-32 1176.8337115392 961.42364032
Pipes-32 1180.6226395392 961.80253312
Pipes-32 1182.6434011392 962.05512832
Pipes-32 1187.1901147392 962.56031872
Pipes-32 1191.1053403392 962.93921152
Pipes-32 1197.7991131392 963.57069952
Pipes-32 1199.3146843392 963.82329472
Pipes-32 1204.1139931392 964.32848512
Pipes-32 1212.9548251392 965.21256832
Pipes-32 1236.8250715392 967.61222272
Pipes-32 1247.5603675392 968.87519872
Pipes-32 1264.2316507392 970.64336512
Pipes-32 1270.6728283392 971.14855552
Pipes-18 370.9287259392 1316.95138432
Pipes-18 368.0238811392 1322.88737152
Pipes-18 366.2557147392 1326.42370432
Pipes-18 364.2349531392 1330.33892992
Pipes-18 361.8352987392 1334.63304832
Pipes-18 360.0671323392 1337.41159552
Pipes-18 357.7937755392 1340.56903552
Pipes-18 355.3941211392 1343.85277312
Pipes-18 352.6155739392 1347.38910592
Pipes-18 349.7107291392 1350.67284352
Pipes-18 347.5636699392 1354.08287872
Pipes-18 343.6484443392 1360.65035392
Pipes-18 341.8802779392 1363.42890112
Pipes-18 338.5965403392 1368.73340032
Pipes-18 336.5757787392 1372.26973312
Pipes-18 334.5550171392 1375.80606592
Pipes-18 332.7868507392 1378.20572032
Pipes-18 330.5134939392 1381.48945792
Pipes-18 327.9875419392 1384.77319552
Pipes-18 325.3352923392 1388.30952832
Pipes-18 321.7989595392 1393.10883712
Pipes-18 319.0204123392 1396.89776512
Pipes-18 316.4944603392 1400.43409792
Pipes-18 314.7262939392 1402.83375232
Pipes-18 311.3162587392 1407.88565632
Pipes-18 308.7903067392 1411.92717952
Pipes-18 306.1380571392 1416.09500032
Pipes-18 304.8750811392 1417.48427392
Pipes-18 300.0757723392 1423.29396352
Pipes-18 295.0238683392 1429.35624832
Pipes-18 290.8560475392 1434.15555712
Pipes-18 289.8456667392 1435.29223552
Pipes-48 1021.6139611392 1610.08811392
Pipes-48 1019.5931995392 1618.42375552
Pipes-48 1017.8250331392 1624.99123072
Pipes-48 1017.3198427392 1627.39088512
Pipes-48 1014.9201883392 1637.87358592
Pipes-48 1012.5205339392 1647.47220352
Pipes-48 1011.2575579392 1651.64002432
Pipes-48 1009.1104987392 1657.95490432
Pipes-48 1005.7004635392 1666.54314112
Pipes-48 1004.0585947392 1671.08985472
Pipes-48 1002.4167259392 1675.88916352
Pipes-48 1001.1537499392 1680.94106752
Pipes-48 1000.3959643392 1686.37186432
Pipes-48 1000.1433691392 1690.53968512
Pipes-48 1000.3959643392 1697.23345792
Pipes-48 1000.3959643392 1697.86494592
Pipes-48 1000.5222619392 1698.87532672
Pipes-48 1000.7748571392 1700.13830272
Pipes-48 1001.0274523392 1701.27498112
Pipes-48 1001.4063451392 1702.41165952
Pipes-48 1001.7852379392 1703.29574272
Pipes-48 1002.4167259392 1704.93761152
Pipes-48 1002.9219163392 1705.69539712
Pipes-48 1004.8163803392 1707.96875392
Pipes-48 1006.0793563392 1708.97913472
Pipes-48 1006.9634395392 1709.73692032
Pipes-48 1007.7212251392 1710.24211072
Pipes-48 1008.7316059392 1710.62100352
Pipes-48 1009.9945819392 1711.37878912
Pipes-48 1010.8786651392 1711.88397952
Pipes-48 1013.0257243392 1712.89436032
Pipes-48 1017.4461403392 1715.04141952
Pipes-48 1018.5828187392 1715.67290752
Pipes-48 1019.8457947392 1716.55699072
Pipes-48 1020.9824731392 1717.18847872
Pipes-48 1021.8665563392 1717.81996672
Pipes-48 1022.7506395392 1718.32515712
Pipes-48 1027.2973531392 1721.48259712
Pipes-48 1031.2125787392 1724.38744192
Pipes-48 1040.4323035392 1731.83900032
Pipes-48 1047.6312667392 1737.01720192
Pipes-48 1051.6727899392 1739.54315392
Pipes-48 1056.5983963392 1741.94280832
Pipes-48 1059.5032411392 1743.20578432
Pipes-48 1066.7022043392 1746.23692672
Pipes-40 948.040576043285 310.291330424085
Pipes-40 949.050956843285 321.026626424085
Pipes-40 938.694553643285 405.898613624085
Pipes-31 879.6554587392 927.82847872
Pipes-31 883.0654939392 923.91325312
Pipes-31 1031.2125787392 942.47900032
Pipes-31 1102.4444251392 951.19353472
Pipes-31 1109.7696859392 952.45651072
Pipes-31 1120.1260891392 953.97208192
Pipes-31 1126.0620763392 954.85616512
Pipes-47 1203.1036123392 629.89244032
Pipes-47 1222.9323355392 453.70728832
Pipes-47 1244.0240347392 404.19862912
Pipes-44 850.6070107392 402.68305792
Pipes-44 850.1018203392 421.24880512
Pipes-44 836.7142747392 440.57233792
Pipes-44 827.9997403392 451.68652672
Pipes-44 814.7384923392 470.50486912
Pipes-44 801.3509467392 498.16404352
Pipes-44 763.9668571392 565.48066432
Pipes-44 742.2436699392 572.30073472
Pipes-44 740.3492059392 574.19519872
Pipes-44 738.9599323392 584.17270912
Pipes-44 714.3319003392 778.67101312
Pipes-44 705.8699611392 796.10008192
Pipes-42(2) 647.1415771392 796.10008192
Pipes-42(2) 642.4685659392 799.76271232
Pipes-42(2) 608.2419163392 840.80943232
Pipes-42(2) 574.8993499392 874.53089152
Pipes-42(2) 544.9668187392 917.09318272
Pipes-19(1) 287.3197147392 1440.34413952
Pipes-19(2) 285.8041435392 1442.99638912
Pipes-19(2) 284.5411675392 1445.26974592
Pipes-19(2) 283.2781915392 1447.79569792
Pipes-19(2) 282.2678107392 1449.56386432
Pipes-19(2) 281.0048347392 1451.58462592
Pipes-19(2) 279.3629659392 1453.98428032
Pipes-19(2) 277.2159067392 1457.26801792
Pipes-19(2) 275.7003355392 1459.41507712
Pipes-19(2) 274.1847643392 1461.81473152
Pipes-19(2) 273.0480859392 1464.34068352
Pipes-19(2) 271.5325147392 1467.62442112
Pipes-19(2) 270.2695387392 1470.65556352
Pipes-19(2) 269.2591579392 1472.67632512
Pipes-19(2) 268.5013723392 1475.07597952
Pipes-19(2) 267.7435867392 1477.09674112
Pipes-19(2) 266.7332059392 1479.49639552
Pipes-19(2) 265.9754203392 1481.51715712
Pipes-19(2) 263.4494683392 1487.32684672
Pipes-19(2) 259.9131355392 1495.28359552
Pipes-19(2) 257.3871835392 1501.59847552
Pipes-19(2) 254.7349339392 1509.68152192
Pipes-19(2) 252.7141723392 1516.37529472
Pipes-19(2) 250.9460059392 1522.43757952
Pipes-19(2) 248.1674587392 1535.19363712
Pipes-19(2) 246.9044827392 1542.26630272
Pipes-19(2) 245.8941019392 1549.08637312
Pipes-19(2) 245.3889115392 1554.51716992
Pipes-19(2) 244.6311259392 1560.57945472
P-14 1062.64559311399 1810.93638564574
Pipes-29(1) 980.8198363392 1461.30954112
Pipes-29(1) 979.0516699392 1460.04656512
Pipes-29(1) 977.7886939392 1459.03618432
Pipes-29(1) 976.2731227392 1457.89950592
Pipes-29(1) 973.6208731392 1455.75244672
Pipes-29(1) 971.9790043392 1454.61576832
Pipes-29(1) 972.4841947392 1453.85798272
Pipes-29(1) 965.4115291392 1448.04829312
Pipes-29(1) 950.7610075392 1440.21784192
Pipes-29(1) 935.6052955392 1429.22995072
Pipes-29(1) 927.0170587392 1423.04136832
Pipes-29(1) 916.9132507392 1415.71610752
Pipes-29(1) 910.9772635392 1411.54828672
Pipes-29(1) 905.2938715392 1406.87527552
Pipes-29(1) 898.2212059392 1401.57077632
Pipes-29(1) 889.6329691392 1395.38219392
Pipes-29(1) 886.6018267392 1393.23513472
Pipes-29(1) 883.5706843392 1391.21437312
Pipes-29(1) 880.5395419392 1388.94101632
Pipes-29(1) 878.1398875392 1387.29914752
Pipes-29(1) 873.2142811392 1383.88911232
Pipes-29(1) 869.1727579392 1380.85796992
Pipes-29(1) 865.2575323392 1377.82682752
Pipes-29(1) 855.9115099392 1370.50156672
Pipes-29(1) 846.9443803392 1363.42890112
Pipes-29(1) 837.9772507392 1356.48253312
Pipes-29(1) 835.1987035392 1353.70398592
Pipes-29(1) 826.8630619392 1330.97041792
Pipes-29(2) 827.8734427392 1323.89775232
Pipes-39(1) 1121.6416603392 340.16574592
Pipes-39(1) 1085.3942491392 317.68477312
Pipes-39(2) 1062.5343835392 279.29030272
Pipes-39(2) 1044.8527195392 268.30241152
Pipes-39(2) 1012.5205339392 262.11382912
Pipes-39(2) 935.9841883392 254.15708032
Pipes-39(2) 929.1641179392 253.39929472
Pipes-34(1) 1275.9773275392 971.27485312
Pipes-34(1) 1276.7351131392 964.58108032
Pipes-34(2) 1273.8302683392 942.73159552
Pipes-34(2) 1273.4513755392 933.38557312
Pipes-35(1) 1280.9029339392 927.44958592
Pipes-35(1) 1291.6382299392 926.94439552
Pipes-35(1) 1297.0690267392 927.57588352
Pipes-35(1) 1302.6261211392 928.33366912
Pipes-35(1) 1305.7835611392 928.71256192
Pipes-35(1) 1307.6780251392 928.96515712
Pipes-35(1) 1309.3198939392 929.21775232
Pipes-35(1) 1310.2039771392 929.21775232
Pipes-35(1) 1332.4323547392 932.24889472
Pipes-35(1) 1337.9894491392 933.00668032
Pipes-35(1) 1345.5673051392 933.89076352
Pipes-35(1) 1354.2818395392 935.02744192
Pipes-35(1) 1371.2057179392 937.30079872
Pipes-35(1) 1378.1520859392 938.05858432
Pipes-35(1) 1384.2143707392 937.67969152
Pipes-35(1) 1386.8666203392 935.15373952
Pipes-35(1) 1389.1399771392 928.20737152
Pipes-35(1) 1391.1607387392 895.87518592
Pipes-35(1) 1389.3925723392 871.75234432
Pipes-35(1) 1390.5292507392 865.31116672
Pipes-35(1) 1394.3181787392 860.13296512
Pipes-35(1) 1398.2334043392 841.44092032
Pipes-35(1) 1400.3804635392 830.45302912
Pipes-35(1) 1404.4219867392 813.78174592
Pipes-35(1) 1407.2005339392 801.53087872
Pipes-35(1) 1409.9790811392 789.40630912
Pipes-35(1) 1410.9894619392 784.85959552
Pipes-35(1) 1413.2628187392 771.85094272
Pipes-35(1) 1414.1469019392 766.54644352
Pipes-35(1) 1415.6624731392 758.21080192
Pipes-35(1) 1390.2766555392 653.51009152
Pipes-35(1) 1405.8112603392 649.97375872
Pipes-35(1) 1436.3752795392 631.02911872
Pipes-35(1) 1450.5206107392 625.72461952
Pipes-35(1) 1464.1607515392 619.66233472
Pipes-35(1) 1476.5379163392 615.87340672
Pipes-35(1) 1491.8199259392 610.31631232
Pipes-35(1) 1495.8614491392 608.80074112
Pipes-35(1) 1496.9981275392 596.29727872
Pipes-35(1) 1504.5759835392 564.72287872
Pipes-35(1) 1506.5967451392 534.91664512
Pipes-35(2) 1518.4687195392 492.35435392
Pipes-35(2) 1530.8458843392 495.89068672
Pipes-23(1) 268.7539675392 1745.73173632
Pipes-23(1) 270.1432411392 1746.23692672
Pipes-23(1) 274.9425499392 1747.75249792
Pipes-23(1) 278.4788827392 1749.01547392
Pipes-23(1) 280.7522395392 1749.77325952
Pipes-23(1) 283.7833819392 1751.03623552
Pipes-23(1) 286.0567387392 1751.79402112
Pipes-23(1) 288.5826907392 1752.55180672
Pipes-23(1) 290.6034523392 1753.05699712
Pipes-23(1) 292.3716187392 1753.68848512
Pipes-23(1) 295.4027611392 1754.95146112
Pipes-23(1) 298.0550107392 1755.83554432
Pipes-23(1) 300.4546651392 1756.59332992
Pipes-23(1) 302.3491291392 1757.09852032
Pipes-23(1) 303.9909979392 1757.47741312
Pipes-23(1) 306.2643547392 1757.85630592
Pipes-23(1) 308.5377115392 1758.23519872
Pipes-23(1) 310.8110683392 1758.74038912
Pipes-23(1) 311.6951515392 1758.86668672
Pipes-23(1) 312.8318299392 1759.11928192
Pipes-23(1) 314.8525915392 1759.62447232
Pipes-23(1) 316.1155675392 1759.87706752
Pipes-23(1) 317.3785435392 1760.12966272
Pipes-23(1) 318.7678171392 1760.50855552
Pipes-23(1) 319.7781979392 1760.63485312
Pipes-23(1) 320.9148763392 1760.88744832
Pipes-23(1) 322.0515547392 1761.14004352
Pipes-23(1) 322.9356379392 1761.39263872
Pipes-23(1) 323.5671259392 1761.51893632
Pipes-23(1) 324.0723163392 1761.51893632
Pipes-23(1) 326.2193755392 1762.02412672
Pipes-23(1) 328.9979227392 1762.65561472
Pipes-23(1) 330.6397915392 1763.03450752
Pipes-23(1) 331.2712795392 1763.16080512
Pipes-23(1) 332.2816603392 1763.28710272
Pipes-23(1) 333.0394459392 1763.53969792
Pipes-23(1) 335.5653979392 1764.04488832
Pipes-23(1) 336.7020763392 1764.29748352
Pipes-23(1) 337.8387547392 1764.42378112
Pipes-23(1) 338.7228379392 1764.67637632
Pipes-23(1) 339.4806235392 1764.80267392
Pipes-23(1) 340.4910043392 1765.05526912
Pipes-23(1) 342.8906587392 1765.43416192
Pipes-23(1) 344.4062299392 1765.68675712
Pipes-23(1) 345.4166107392 1765.93935232
Pipes-23(1) 346.6795867392 1766.06564992
Pipes-23(1) 350.4685147392 1766.82343552
Pipes-23(1) 351.9840859392 1767.07603072
Pipes-23(1) 353.1207643392 1767.32862592
Pipes-23(1) 355.0152283392 1767.58122112
Pipes-23(1) 356.2782043392 1767.83381632
Pipes-23(1) 357.2885851392 1768.08641152
Pipes-23(1) 359.3093467392 1768.33900672
Pipes-23(1) 361.0775131392 1768.71789952
Pipes-23(1) 362.3404891392 1768.97049472
Pipes-23(1) 363.3508699392 1769.09679232
Pipes-23(1) 364.6138459392 1769.34938752
Pipes-23(1) 366.3820123392 1769.72828032
Pipes-23(1) 367.6449883392 1769.98087552
Pipes-23(1) 368.5290715392 1770.10717312
Pipes-23(1) 369.6657499392 1770.35976832
Pipes-23(1) 371.0550235392 1770.61236352
Pipes-23(1) 371.9391067392 1770.86495872
Pipes-23(1) 372.9494875392 1771.11755392
Pipes-23(1) 374.2124635392 1771.37014912
Pipes-23(1) 375.6017371392 1771.62274432
Pipes-23(1) 376.4858203392 1771.74904192
Pipes-23(1) 377.2436059392 1771.87533952
Pipes-23(1) 381.1588315392 1772.63312512
Pipes-23(1) 384.8214619392 1773.39091072
Pipes-23(1) 386.5896283392 1773.76980352
Pipes-23(1) 389.1155803392 1774.27499392
Pipes-23(1) 392.2730203392 1774.90648192
Pipes-23(1) 394.4200795392 1775.41167232
Pipes-23(1) 396.4408411392 1775.79056512
Pipes-23(1) 399.9771739392 1776.54835072
Pipes-23(1) 402.7557211392 1777.05354112
Pipes-23(1) 405.0290779392 1777.55873152
Pipes-23(1) 408.1865179392 1778.19021952
Pipes-23(1) 409.5757915392 1778.44281472
Pipes-23(1) 413.2384219392 1778.94800512
Pipes-23(1) 414.7539931392 1779.20060032
Pipes-23(1) 415.3854811392 1779.20060032
Pipes-23(2) 431.8041691392 1782.10544512
Pipes-23(2) 440.3924059392 1783.62101632
Pipes-23(2) 449.2332379392 1785.26288512
Pipes-23(2) 457.5688795392 1787.03105152
Pipes-23(2) 459.3370459392 1787.28364672
Pipes-23(2) 464.8941403392 1788.29402752
Pipes-23(2) 467.6726875392 1788.79921792
Pipes-23(2) 471.2090203392 1789.30440832
Pipes-23(2) 476.0083291392 1790.06219392
Pipes-23(2) 477.5239003392 1790.31478912
Pipes-23(2) 479.7972571392 1790.56738432
Pipes-23(2) 481.9443163392 1790.81997952
Pipes-23(2) 485.9858395392 1791.32516992
Pipes-23(2) 488.7643867392 1791.57776512
Pipes-23(2) 491.0377435392 1791.95665792
Pipes-23(2) 493.4373979392 1792.20925312
Pipes-23(2) 498.7418971392 1792.84074112
Pipes-23(2) 503.9200987392 1793.47222912
Pipes-23(2) 508.8457051392 1793.85112192
Pipes-23(2) 513.7713115392 1794.35631232
Pipes-23(2) 519.0758107392 1794.86150272
Pipes-23(2) 524.3803099392 1795.36669312
Pipes-23(2) 529.1796187392 1795.87188352
Pipes-33(1) 966.6745051392 1444.63825792
Pipes-33(1) 968.3163739392 1438.82856832
Pipes-33(1) 969.7056475392 1432.00849792
Pipes-33(1) 970.8423259392 1426.19880832
Pipes-33(1) 972.6104923392 1415.71610752
Pipes-33(1) 976.3994203392 1395.76108672
Pipes-33(1) 978.9253723392 1382.75243392
Pipes-33(1) 982.0828123392 1371.63824512
Pipes-33(1) 983.5983835392 1366.46004352
Pipes-33(1) 986.6295259392 1357.11402112
Pipes-33(1) 989.6606683392 1350.16765312
Pipes-33(1) 991.4288347392 1345.87353472
Pipes-33(1) 992.9444059392 1342.46349952
Pipes-33(1) 997.1122267392 1335.39083392
Pipes-33(1) 1000.2696667392 1329.96003712
Pipes-33(1) 1005.3215707392 1324.15034752
Pipes-33(1) 1008.7316059392 1319.98252672
Pipes-33(1) 1011.1312603392 1317.20397952
Pipes-33(1) 1013.1520219392 1314.80432512
Pipes-33(1) 1016.4357595392 1311.01539712
Pipes-33(1) 1020.7298779392 1306.08979072
Pipes-33(1) 1027.9288411392 1298.76452992
Pipes-33(1) 1030.5810907392 1296.11228032
Pipes-33(1) 1032.7281499392 1293.96522112
Pipes-33(1) 1044.3475291392 1282.34584192
Pipes-33(1) 1049.9046235392 1277.04134272
Pipes-33(1) 1064.6814427392 1264.03268992
Pipes-33(1) 1078.4478811392 1251.90812032
Pipes-33(1) 1086.5309275392 1244.58285952
Pipes-33(1) 1094.1087835392 1237.76278912
Pipes-33(1) 1100.1710683392 1232.96348032
Pipes-33(1) 1106.9911387392 1226.64860032
Pipes-33(1) 1114.9478875392 1221.21780352
Pipes-33(1) 1117.9790299392 1219.19704192
Pipes-33(1) 1121.0101723392 1217.17628032
Pipes-33(1) 1123.7887195392 1215.40811392
Pipes-33(1) 1130.2298971392 1211.11399552
Pipes-33(1) 1137.1762651392 1206.56728192
Pipes-33(1) 1145.3856091392 1201.01018752
Pipes-33(1) 1149.8060251392 1198.23164032
Pipes-33(1) 1151.9530843392 1196.71606912
Pipes-33(1) 1154.1001435392 1195.20049792
Pipes-33(1) 1159.2783451392 1191.91676032
Pipes-33(1) 1162.3094875392 1190.14859392
Pipes-33(1) 1164.5828443392 1188.75932032
Pipes-33(1) 1167.1087963392 1187.37004672
Pipes-33(1) 1169.1295579392 1186.23336832
Pipes-33(1) 1170.3925339392 1185.34928512
Pipes-33(1) 1175.4444379392 1182.57073792
Pipes-33(1) 1179.7385563392 1180.04478592
Pipes-33(1) 1182.2645083392 1178.52921472
Pipes-33(1) 1184.5378651392 1177.26623872
Pipes-33(1) 1187.0638171392 1175.75066752
Pipes-33(1) 1189.0845787392 1174.61398912